this is a test sentence.

this is a second word.

New line.